Version 4.1
SHEET 1 1544 716
WIRE 400 -432 304 -432
WIRE 576 -432 400 -432
WIRE 832 -432 576 -432
WIRE 1008 -432 832 -432
WIRE 1168 -432 1008 -432
WIRE 1248 -432 1168 -432
WIRE 576 -400 576 -432
WIRE 400 -352 400 -432
WIRE 576 -304 576 -320
WIRE 576 -304 464 -304
WIRE 576 -288 576 -304
WIRE -272 -272 -272 -320
WIRE -160 -272 -160 -320
WIRE 400 -240 400 -256
WIRE 512 -240 400 -240
WIRE 304 -224 304 -432
WIRE 304 -224 144 -224
WIRE 80 -176 80 -224
WIRE 832 -176 832 -432
WIRE -272 -160 -272 -192
WIRE -272 -160 -288 -160
WIRE -288 -144 -288 -160
WIRE -160 -144 -160 -192
WIRE 576 -128 576 -192
WIRE 768 -128 576 -128
WIRE 1008 -128 1008 -432
WIRE 576 -96 576 -128
WIRE 576 -96 496 -96
WIRE 656 -96 576 -96
WIRE 944 -80 832 -80
WIRE 1168 -80 1168 -432
WIRE 496 -48 496 -96
WIRE 1056 -32 1008 -32
WIRE 1104 -32 1056 -32
WIRE 160 -16 112 -16
WIRE 368 -16 240 -16
WIRE 208 32 176 32
WIRE 320 32 272 32
WIRE 656 32 656 -96
WIRE 1168 32 1168 16
WIRE 592 80 544 80
WIRE 176 112 176 32
WIRE 208 112 176 112
WIRE 320 112 320 32
WIRE 320 112 272 112
WIRE 1056 112 1056 -32
WIRE 496 128 496 112
WIRE 1168 128 1168 112
WIRE 1296 128 1296 64
WIRE 1296 128 1168 128
WIRE 1488 128 1296 128
WIRE -96 144 -160 144
WIRE 112 144 112 -16
WIRE 112 144 -16 144
WIRE 208 144 112 144
WIRE 304 144 304 -224
WIRE 304 144 272 144
WIRE -160 160 -160 144
WIRE 1168 160 1168 128
WIRE 208 176 32 176
WIRE 384 176 272 176
WIRE 1488 176 1488 128
WIRE 384 192 384 176
WIRE 176 208 176 112
WIRE 176 208 144 208
WIRE 208 208 176 208
WIRE -112 256 -432 256
WIRE 16 256 -32 256
WIRE 32 256 32 176
WIRE 32 256 16 256
WIRE 16 272 16 256
WIRE 496 272 496 208
WIRE 560 272 496 272
WIRE 656 272 656 128
WIRE 656 272 560 272
WIRE 1168 272 1168 240
WIRE 1488 304 1488 256
WIRE 1056 320 1056 192
WIRE 1056 320 1008 320
WIRE 1104 320 1056 320
WIRE 384 352 384 272
WIRE 560 352 560 272
WIRE 560 352 384 352
WIRE -432 368 -432 336
WIRE 16 368 16 336
WIRE 944 368 864 368
WIRE 144 400 144 208
WIRE 144 400 128 400
WIRE 368 400 368 384
WIRE 560 416 560 352
WIRE 800 416 560 416
WIRE 560 448 560 416
WIRE 64 480 64 400
WIRE 368 496 368 480
WIRE 496 496 368 496
WIRE 368 512 368 496
WIRE 560 560 560 544
WIRE 560 560 432 560
WIRE 560 576 560 560
WIRE 144 656 144 400
WIRE 368 656 368 608
WIRE 368 656 144 656
WIRE 560 656 368 656
WIRE 864 656 864 464
WIRE 864 656 560 656
WIRE 1008 656 1008 416
WIRE 1008 656 864 656
WIRE 1168 656 1168 368
WIRE 1168 656 1008 656
WIRE 1216 656 1168 656
FLAG -160 160 0
FLAG 64 480 0
FLAG 1216 656 V-
FLAG 1248 -432 V+
FLAG 80 -176 0
FLAG -288 -144 0
FLAG -160 -144 0
FLAG -272 -320 V-
FLAG -160 -320 V+
FLAG -432 368 0
FLAG 1488 304 0
FLAG 368 -16 Out
FLAG 1296 64 Out
FLAG 1488 128 Vout
FLAG 16 368 0
FLAG 400 -160 0
FLAG 368 384 0
SYMBOL lib\\sym\\OPA454 240 160 R0
SYMATTR InstName U1
SYMBOL res 0 128 R90
WINDOW 0 0 56 VBottom 2
WINDOW 3 32 56 VTop 2
SYMATTR InstName R1
SYMATTR Value 1k
SYMBOL res 256 -32 R90
WINDOW 0 0 56 VBottom 2
WINDOW 3 32 56 VTop 2
SYMATTR InstName R2
SYMATTR Value 20k
SYMBOL cap 128 384 R90
WINDOW 0 0 32 VBottom 2
WINDOW 3 32 32 VTop 2
SYMATTR InstName C1
SYMATTR Value 0.1µ
SYMBOL cap 144 -240 R90
WINDOW 0 0 32 VBottom 2
WINDOW 3 32 32 VTop 2
SYMATTR InstName C2
SYMATTR Value 0.1µ
SYMBOL voltage -272 -288 R0
WINDOW 123 0 0 Left 0
WINDOW 39 0 0 Left 0
SYMATTR InstName V1
SYMATTR Value -45
SYMBOL voltage -160 -288 R0
WINDOW 123 0 0 Left 0
WINDOW 39 0 0 Left 0
SYMATTR InstName V2
SYMATTR Value 45
SYMBOL voltage -432 240 R0
WINDOW 123 24 44 Left 2
WINDOW 39 0 0 Left 0
WINDOW 3 24 44 Left 2
SYMATTR Value SINE(0 1 1k)
SYMATTR InstName V3
SYMBOL res 480 -64 R0
SYMATTR InstName R5
SYMATTR Value 3.6k
SYMBOL res 480 112 R0
SYMATTR InstName R6
SYMATTR Value 1.1k
SYMBOL npn 592 32 R0
SYMATTR InstName Q1
SYMATTR Value 2N5551C
SYMBOL res 368 176 R0
SYMATTR InstName R7
SYMATTR Value 100
SYMBOL npn 768 -176 R0
SYMATTR InstName Q2
SYMATTR Value MJE15032C
SYMBOL npn 1104 -80 R0
SYMATTR InstName Q3
SYMATTR Value MJL21194C
SYMBOL pnp 1104 368 M180
SYMATTR InstName Q4
SYMATTR Value MJL21193C
SYMBOL pnp 800 464 M180
SYMATTR InstName Q5
SYMATTR Value MJE15033C
SYMBOL res 1152 16 R0
SYMATTR InstName R8
SYMATTR Value 1
SYMBOL res 1472 160 R0
SYMATTR InstName R9
SYMATTR Value 8
SYMBOL res 1152 144 R0
SYMATTR InstName R10
SYMATTR Value 1
SYMBOL res -16 240 R90
WINDOW 0 0 56 VBottom 2
WINDOW 3 32 56 VTop 2
SYMATTR InstName R3
SYMATTR Value 1k
SYMBOL cap 0 272 R0
SYMATTR InstName C3
SYMATTR Value 1n
SYMBOL cap 272 16 R90
WINDOW 0 0 32 VBottom 2
WINDOW 3 32 32 VTop 2
SYMATTR InstName C4
SYMATTR Value 30p
SYMBOL npn 944 -128 R0
SYMATTR InstName Q6
SYMATTR Value MJE15032C
SYMBOL pnp 944 416 M180
SYMATTR InstName Q7
SYMATTR Value MJE15033C
SYMBOL pnp 512 -192 M180
SYMATTR InstName Q8
SYMATTR Value 2N5401C
SYMBOL pnp 464 -256 R180
SYMATTR InstName Q9
SYMATTR Value 2N5401C
SYMBOL res 560 -416 R0
SYMATTR InstName R4
SYMATTR Value 108
SYMBOL res 384 -256 R0
SYMATTR InstName R11
SYMATTR Value 40k
SYMBOL npn 496 448 R0
SYMATTR InstName Q10
SYMATTR Value 2N5551C
SYMBOL npn 432 512 M0
SYMATTR InstName Q11
SYMATTR Value 2N5551C
SYMBOL res 544 560 R0
SYMATTR InstName R12
SYMATTR Value 108
SYMBOL res 352 384 R0
SYMATTR InstName R13
SYMATTR Value 40k
SYMBOL res 1040 96 R0
SYMATTR InstName R14
SYMATTR Value 330
SYMBOL lib\\sym\\pot 480 16 R0
SYMATTR InstName U2
SYMATTR Value Rtot=1K wiper=.2
TEXT 48 -480 Left 2 !.include "Cordell Models.txt"
TEXT -1256 -400 Left 2 ;.op
TEXT -1280 -104 Left 2 ;THD - select view FFT on plot to view and look at error log for THD %
TEXT -1280 -224 Left 2 !.tran 0 4ms 0 0.488u
TEXT -1280 -192 Left 2 !.option plotwinsize=0\n.options reltol=0.01 abstol=1e-6 vntol=1e-4\n.four 1kHz 10 4 V(vout)
TEXT -1280 16 Left 2 ;Frequency Response, change V3 to be AC 1 instead of SINE
TEXT -1272 64 Left 2 ;.ac dec 10 20 1Meg
TEXT -1272 -432 Left 2 ;DC Operating Point
TEXT -1280 -288 Left 2 ;Transient Response: Alt Click on RL to see power, CTRL+Click on trace name \nto see RMS. Max at 1.9V amplitude
TEXT -1280 152 Left 2 ;.noise V(Vout) V3 dec 20 20 20k
TEXT 56 -448 Left 2 !.include pot.sub
